Displayed atoms
                    3D
 Schrodinger Suite 2021-3.
 36 38  0  0  1  0            999 V2000
  -42.8550    1.2260  -54.8760 N   0  0  0  0  0  0
  -43.0650   -2.2940  -53.1030 C   0  0  0  0  0  0
  -42.9020   -2.6400  -54.4420 C   0  0  0  0  0  0
  -41.7460   -2.2610  -55.1260 C   0  0  0  0  0  0
  -40.7390   -1.5130  -54.4870 C   0  0  0  0  0  0
  -40.9170   -1.1850  -53.1350 C   0  0  0  0  0  0
  -42.0700   -1.5720  -52.4490 C   0  0  0  0  0  0
  -39.5170   -1.0520  -55.2700 C   0  0  0  0  0  0
  -38.1990   -1.6670  -54.7750 C   0  0  0  0  0  0
  -38.0630   -3.0380  -54.4980 C   0  0  0  0  0  0
  -36.8620   -3.5680  -54.0260 C   0  0  0  0  0  0
  -35.7600   -2.7390  -53.8450 C   0  0  0  0  0  0
  -35.8560   -1.3830  -54.1420 C   0  0  0  0  0  0
  -37.0650   -0.8500  -54.6060 C   0  0  0  0  0  0
  -40.9060    1.1130  -56.3930 C   0  0  0  0  0  0
  -41.9080    1.9090  -55.6270 C   0  0  0  0  0  0
  -43.6290    2.0810  -54.2440 C   0  0  0  0  0  0
  -41.9990    3.2870  -55.5430 C   0  0  0  0  0  0
  -38.1862    1.0868  -56.3071 O   0  0  0  0  0  0
  -39.3900    0.7960  -55.4540 S   0  0  2  0  0  0
  -43.3040    3.7360  -54.5250 S   0  0  0  0  0  0
  -43.9609   -2.5856  -52.5751 H   0  0  0  0  0  0
  -43.6704   -3.2020  -54.9519 H   0  0  0  0  0  0
  -41.6142   -2.5415  -56.1606 H   0  0  0  0  0  0
  -40.1565   -0.6257  -52.6104 H   0  0  0  0  0  0
  -42.1888   -1.3097  -51.4081 H   0  0  0  0  0  0
  -39.6564   -1.4364  -56.2804 H   0  0  0  0  0  0
  -38.8987   -3.7051  -54.6498 H   0  0  0  0  0  0
  -36.7881   -4.6218  -53.8012 H   0  0  0  0  0  0
  -34.8317   -3.1480  -53.4745 H   0  0  0  0  0  0
  -34.9975   -0.7402  -54.0148 H   0  0  0  0  0  0
  -37.1198    0.2040  -54.8352 H   0  0  0  0  0  0
  -40.6573    1.6361  -57.3163 H   0  0  0  0  0  0
  -41.3506    0.1644  -56.6939 H   0  0  0  0  0  0
  -44.4131    1.7214  -53.5942 H   0  0  0  0  0  0
  -41.2984    3.9082  -56.0812 H   0  0  0  0  0  0
  1 16  1  0  0  0
  1 17  2  0  0  0
  2  3  2  0  0  0
  2  7  1  0  0  0
  2 22  1  0  0  0
  3  4  1  0  0  0
  3 23  1  0  0  0
  4  5  2  0  0  0
  4 24  1  0  0  0
  5  6  1  0  0  0
  5  8  1  0  0  0
  6  7  2  0  0  0
  6 25  1  0  0  0
  7 26  1  0  0  0
  8  9  1  0  0  0
  8 20  1  0  0  0
  8 27  1  0  0  0
  9 10  2  0  0  0
  9 14  1  0  0  0
 10 11  1  0  0  0
 10 28  1  0  0  0
 11 12  2  0  0  0
 11 29  1  0  0  0
 12 13  1  0  0  0
 12 30  1  0  0  0
 13 14  2  0  0  0
 13 31  1  0  0  0
 14 32  1  0  0  0
 15 16  1  0  0  0
 15 20  1  0  0  0
 15 33  1  0  0  0
 15 34  1  0  0  0
 16 18  2  0  0  0
 17 21  1  0  0  0
 17 35  1  0  0  0
 18 21  1  0  0  0
 18 36  1  0  0  0
 19 20  2  0  0  0
M  END
$$$$
